!-Generator IDFEditor 1.44
!-Option SortedOrder

!-NOTE: All comments with '!-' are ignored by the IDFEditor and are generated automatically.
!-      Use '!' comments if they need to be retained when using the IDFEditor.


!-   ===========  ALL OBJECTS IN CLASS: VERSION ===========

! DOE Commercial Reference Building
! Large office, new construction 90.1-2004
! Version 1.3_5.0
! EnergyPlus Version 5.0
! ASHRAE Standards 90.1-2004 and 62-1999
!
! Description:  12 story plus basement, office building.
! Form:         Area = 46,320 m2 (498,588 ft2); Number of Stories = 12; Shape = rectangle, Aspect ratio = 1.5
! Envelope:     Envelope thermal properties vary with climate according to ASHRAE Standard 90.1-2004.
!               Opaque constructions: mass walls; built-up flat roof (insulation above deck); slab-on-grade floor
!               Windows: window-to-wall ratio = 38.0%, equal distribution of windows
!               Infiltration in perimeter zones only
!                            = 0.4 cfm/ft2 above grade wall area at 0.3 in wc (75 Pa) adjusted to 0.016 in wc (4 Pa).
!                              25% of full value when ventilation system on.
! HVAC:         2 water-cooled chillers, VAV with reheat and plenum zones
!               Economizer per 90.1-2004
!
! Int. gains:   lights = 7.53473729169681 W/m2 (1.0 W/ft2) (building area method);
!               elec. plug loads = 7.53473729169681 W/m2 (1.0 W/ft2)
!               gas plug load = 0 W/m2 (0 W/ft2)
!               people = 2,397 total, 5.38/100 m2 (5.0/1000 ft2); basement 2.69/100 m2 (2.5/1000 ft2)
!               elevators = 12 @ 25 HP each, 91% motor efficiency, motor heat exhausted directly
!
! Detached Shading:               None
! Daylight:                       None
! Natural Ventilation:            None
! Zonal Equipment:                None
! Air Primary Loops:              VAV WITH REHEAT
! Plant Loops:                    SHWSys1, HeatSys1, CoolSys1, TowerWaterSys
! System Equipment Autosize:      Yes
! Purchased Cooling:              None
! Purchased Heating:              None
! Coils:                          Coil:Cooling:Water; Coil:Heating:Water
! Pumps:                          Yes
! Boilers:                        Boiler:HotWater (gas-fired)
! Chillers:                       Chiller:Electric:ReformulatedEIR (water-cooled)
!***** NOTICE *****
!***** The Reference Buildings were prepared as an account of work sponsored by an *****
!***** agency of the United States government. Neither the United States *****
!***** government nor any agency thereof, nor any of their employees, makes *****
!***** any warranty, express or implied, or assumes any legal liability or *****
!***** responsibility for the accuracy, completeness, or usefulness of any *****
!***** information, apparatus, product, or process disclosed, or represents *****
!***** that its use would not infringe privately owned rights. Reference *****
!***** herein to any specific commercial product, process, or service by *****
!***** trade name, trademark, manufacturer, or otherwise does not necessarily *****
!***** constitute or imply its endorsement, recommendation, or favoring by *****
!***** the United States government or any agency thereof. The views and *****
!***** opinions of authors expressed herein do not necessarily state or *****
!***** reflect those of the United States government or any agency thereof. *****
!***** Access to and use of the Reference Buildings imposes the following obligations *****
!***** on the user. The user agrees to credit DOE, NREL, PNNL, and LBNL in *****
!***** any publication(s) that that result from the use of Reference Buildings. *****
!***** However, the names of DOE/NREL/PNNL/LBNL may not be used in any *****
!***** advertising or publicity that implies endorsement or promotion of any *****
!***** products, services or commercial entities. *****
! Reference citation for the Commercial Reference Buildings:
! Deru, M.; Field, K.; Studer, D.; Benne, K.; Griffith, B.; Torcellini, P;
! Halverson, M.; Winiarski, D.; Liu, B.; Rosenberg, M.; Huang, J.;
! Yazdanian, M.; Crawley, D. (2010).
! U.S. Department of Energy Commercial Reference Building Models of the National Building Stock.
! Washington, DC: U.S. Department of Energy, Energy Efficiency and
! Renewable Energy, Office of Building Technologies.
! ***GENERAL SIMULATION PARAMETERS***
! Number of Zones: 19
Version,
    8.1;                     !- Version Identifier


!-   ===========  ALL OBJECTS IN CLASS: SIMULATIONCONTROL ===========

SimulationControl,
    yes,                     !- Do Zone Sizing Calculation
    yes,                     !- Do System Sizing Calculation
    yes,                     !- Do Plant Sizing Calculation
    no,                      !- Run Simulation for Sizing Periods
    yes;                     !- Run Simulation for Weather File Run Periods


!-   ===========  ALL OBJECTS IN CLASS: BUILDING ===========

Building,
    LargeOffice,             !- Name
    0.0000,                  !- North Axis {deg}
    City,                    !- Terrain
    0.0400,                  !- Loads Convergence Tolerance Value
    0.2000,                  !- Temperature Convergence Tolerance Value {deltaC}
    FullInteriorAndExterior, !- Solar Distribution
    25,                      !- Maximum Number of Warmup Days
    6;                       !- Minimum Number of Warmup Days


!-   ===========  ALL OBJECTS IN CLASS: SHADOWCALCULATION ===========

ShadowCalculation,
    AverageOverDaysInFrequency,  !- Calculation Method
    300;                     !- Calculation Frequency


!-   ===========  ALL OBJECTS IN CLASS: SURFACECONVECTIONALGORITHM:INSIDE ===========

SurfaceConvectionAlgorithm:Inside,
    TARP;                    !- Algorithm


!-   ===========  ALL OBJECTS IN CLASS: SURFACECONVECTIONALGORITHM:OUTSIDE ===========

SurfaceConvectionAlgorithm:Outside,
    TARP;                    !- Algorithm


!-   ===========  ALL OBJECTS IN CLASS: HEATBALANCEALGORITHM ===========

HeatBalanceAlgorithm,
    ConductionTransferFunction;  !- Algorithm


!-   ===========  ALL OBJECTS IN CLASS: TIMESTEP ===========

Timestep,
    4;                       !- Number of Timesteps per Hour


!-   ===========  ALL OBJECTS IN CLASS: RUNPERIOD ===========

RunPeriod,
    testrun,                 !- Name
    1,                       !- Begin Month
    1,                       !- Begin Day of Month
    12,                      !- End Month
    31,                      !- End Day of Month
    Thursday,                !- Day of Week for Start Day
    No,                      !- Use Weather File Holidays and Special Days
    No,                      !- Use Weather File Daylight Saving Period
    Yes,                     !- Apply Weekend Holiday Rule
    Yes,                     !- Use Weather File Rain Indicators
    Yes,                     !- Use Weather File Snow Indicators
    1.0000;                  !- Number of Times Runperiod to be Repeated


!-   ===========  ALL OBJECTS IN CLASS: RUNPERIODCONTROL:SPECIALDAYS ===========

! US National Holidays
RunPeriodControl:SpecialDays,
    New Years Day,           !- Name
    January 1,               !- Start Date
    1,                       !- Duration {days}
    Holiday;                 !- Special Day Type

RunPeriodControl:SpecialDays,
    Veterans Day,            !- Name
    November 11,             !- Start Date
    1,                       !- Duration {days}
    Holiday;                 !- Special Day Type

RunPeriodControl:SpecialDays,
    Christmas,               !- Name
    December 25,             !- Start Date
    1,                       !- Duration {days}
    Holiday;                 !- Special Day Type

RunPeriodControl:SpecialDays,
    Independence Day,        !- Name
    July 4,                  !- Start Date
    1,                       !- Duration {days}
    Holiday;                 !- Special Day Type

RunPeriodControl:SpecialDays,
    MLK Day,                 !- Name
    3rd Monday in January,   !- Start Date
    1,                       !- Duration {days}
    Holiday;                 !- Special Day Type

RunPeriodControl:SpecialDays,
    Presidents Day,          !- Name
    3rd Monday in February,  !- Start Date
    1,                       !- Duration {days}
    Holiday;                 !- Special Day Type

RunPeriodControl:SpecialDays,
    Memorial Day,            !- Name
    Last Monday in May,      !- Start Date
    1,                       !- Duration {days}
    Holiday;                 !- Special Day Type

RunPeriodControl:SpecialDays,
    Labor Day,               !- Name
    1st Monday in September, !- Start Date
    1,                       !- Duration {days}
    Holiday;                 !- Special Day Type

RunPeriodControl:SpecialDays,
    Columbus Day,            !- Name
    2nd Monday in October,   !- Start Date
    1,                       !- Duration {days}
    Holiday;                 !- Special Day Type

RunPeriodControl:SpecialDays,
    Thanksgiving,            !- Name
    4th Thursday in November,!- Start Date
    1,                       !- Duration {days}
    Holiday;                 !- Special Day Type


!-   ===========  ALL OBJECTS IN CLASS: SITE:WATERMAINSTEMPERATURE ===========

Site:WaterMainsTemperature,
    Correlation,             !- Calculation Method
    ,                        !- Temperature Schedule Name
    13.09,                   !- Annual Average Outdoor Air Temperature {C}
    8.02;                    !- Maximum Difference In Monthly Average Outdoor Air Temperatures {deltaC}


!-   ===========  ALL OBJECTS IN CLASS: SCHEDULETYPELIMITS ===========

! ***SCHEDULE TYPES***
ScheduleTypeLimits,
    Any Number;              !- Name

ScheduleTypeLimits,
    fraction,                !- Name
    0.0,                     !- Lower Limit Value
    1.0,                     !- Upper Limit Value
    CONTINUOUS;              !- Numeric Type

ScheduleTypeLimits,
    Temperature,             !- Name
    -60,                     !- Lower Limit Value
    200,                     !- Upper Limit Value
    CONTINUOUS;              !- Numeric Type

ScheduleTypeLimits,
    On/Off,                  !- Name
    0,                       !- Lower Limit Value
    1,                       !- Upper Limit Value
    DISCRETE;                !- Numeric Type

ScheduleTypeLimits,
    Control Type,            !- Name
    0,                       !- Lower Limit Value
    4,                       !- Upper Limit Value
    DISCRETE;                !- Numeric Type

ScheduleTypeLimits,
    Humidity,                !- Name
    10,                      !- Lower Limit Value
    90,                      !- Upper Limit Value
    CONTINUOUS;              !- Numeric Type

ScheduleTypeLimits,
    Number;                  !- Name


!-   ===========  ALL OBJECTS IN CLASS: SCHEDULE:COMPACT ===========

Schedule:Compact,
    scheduleOSCBasementWallSurfaceTemp,  !- Name
    Temperature,             !- Schedule Type Limits Name
    Through:   1/31,         !- Field 1
    For:AllDays,             !- Field 2
    Until:24:00,             !- Field 3
    20.40,                   !- Field 4
    Through:   2/28,         !- Field 5
    For:AllDays,             !- Field 6
    Until:24:00,             !- Field 7
    20.90,                   !- Field 8
    Through:   3/31,         !- Field 9
    For:AllDays,             !- Field 10
    Until:24:00,             !- Field 11
    20.71,                   !- Field 12
    Through:   4/30,         !- Field 13
    For:AllDays,             !- Field 14
    Until:24:00,             !- Field 15
    21.11,                   !- Field 16
    Through:   5/31,         !- Field 17
    For:AllDays,             !- Field 18
    Until:24:00,             !- Field 19
    21.36,                   !- Field 20
    Through:   6/30,         !- Field 21
    For:AllDays,             !- Field 22
    Until:24:00,             !- Field 23
    23.59,                   !- Field 24
    Through:   7/31,         !- Field 25
    For:AllDays,             !- Field 26
    Until:24:00,             !- Field 27
    24.03,                   !- Field 28
    Through:   8/31,         !- Field 29
    For:AllDays,             !- Field 30
    Until:24:00,             !- Field 31
    24.03,                   !- Field 32
    Through:   9/30,         !- Field 33
    For:AllDays,             !- Field 34
    Until:24:00,             !- Field 35
    24.14,                   !- Field 36
    Through:  10/31,         !- Field 37
    For:AllDays,             !- Field 38
    Until:24:00,             !- Field 39
    22.08,                   !- Field 40
    Through:  11/30,         !- Field 41
    For:AllDays,             !- Field 42
    Until:24:00,             !- Field 43
    21.51,                   !- Field 44
    Through:  12/31,         !- Field 45
    For:AllDays,             !- Field 46
    Until:24:00,             !- Field 47
    20.72;                   !- Field 48

Schedule:Compact,
    scheduleOSCBasementFloorTemp,  !- Name
    Temperature,             !- Schedule Type Limits Name
    Through:   1/31,         !- Field 1
    For:AllDays,             !- Field 2
    Until:24:00,             !- Field 3
    20.94,                   !- Field 4
    Through:   2/28,         !- Field 5
    For:AllDays,             !- Field 6
    Until:24:00,             !- Field 7
    20.92,                   !- Field 8
    Through:   3/31,         !- Field 9
    For:AllDays,             !- Field 10
    Until:24:00,             !- Field 11
    20.91,                   !- Field 12
    Through:   4/30,         !- Field 13
    For:AllDays,             !- Field 14
    Until:24:00,             !- Field 15
    20.90,                   !- Field 16
    Through:   5/31,         !- Field 17
    For:AllDays,             !- Field 18
    Until:24:00,             !- Field 19
    20.90,                   !- Field 20
    Through:   6/30,         !- Field 21
    For:AllDays,             !- Field 22
    Until:24:00,             !- Field 23
    23.27,                   !- Field 24
    Through:   7/31,         !- Field 25
    For:AllDays,             !- Field 26
    Until:24:00,             !- Field 27
    23.63,                   !- Field 28
    Through:   8/31,         !- Field 29
    For:AllDays,             !- Field 30
    Until:24:00,             !- Field 31
    23.69,                   !- Field 32
    Through:   9/30,         !- Field 33
    For:AllDays,             !- Field 34
    Until:24:00,             !- Field 35
    23.72,                   !- Field 36
    Through:  10/31,         !- Field 37
    For:AllDays,             !- Field 38
    Until:24:00,             !- Field 39
    21.29,                   !- Field 40
    Through:  11/30,         !- Field 41
    For:AllDays,             !- Field 42
    Until:24:00,             !- Field 43
    21.01,                   !- Field 44
    Through:  12/31,         !- Field 45
    For:AllDays,             !- Field 46
    Until:24:00,             !- Field 47
    20.96;                   !- Field 48

Schedule:Compact,
    scheduleOSCBasementUpperWallTemp,  !- Name
    Temperature,             !- Schedule Type Limits Name
    Through:   1/31,         !- Field 1
    For:AllDays,             !- Field 2
    Until:24:00,             !- Field 3
    19.97,                   !- Field 4
    Through:   2/28,         !- Field 5
    For:AllDays,             !- Field 6
    Until:24:00,             !- Field 7
    20.87,                   !- Field 8
    Through:   3/31,         !- Field 9
    For:AllDays,             !- Field 10
    Until:24:00,             !- Field 11
    20.51,                   !- Field 12
    Through:   4/30,         !- Field 13
    For:AllDays,             !- Field 14
    Until:24:00,             !- Field 15
    21.18,                   !- Field 16
    Through:   5/31,         !- Field 17
    For:AllDays,             !- Field 18
    Until:24:00,             !- Field 19
    21.56,                   !- Field 20
    Through:   6/30,         !- Field 21
    For:AllDays,             !- Field 22
    Until:24:00,             !- Field 23
    23.83,                   !- Field 24
    Through:   7/31,         !- Field 25
    For:AllDays,             !- Field 26
    Until:24:00,             !- Field 27
    24.22,                   !- Field 28
    Through:   8/31,         !- Field 29
    For:AllDays,             !- Field 30
    Until:24:00,             !- Field 31
    24.18,                   !- Field 32
    Through:   9/30,         !- Field 33
    For:AllDays,             !- Field 34
    Until:24:00,             !- Field 35
    24.36,                   !- Field 36
    Through:  10/31,         !- Field 37
    For:AllDays,             !- Field 38
    Until:24:00,             !- Field 39
    22.26,                   !- Field 40
    Through:  11/30,         !- Field 41
    For:AllDays,             !- Field 42
    Until:24:00,             !- Field 43
    21.53,                   !- Field 44
    Through:  12/31,         !- Field 45
    For:AllDays,             !- Field 46
    Until:24:00,             !- Field 47
    20.28;                   !- Field 48

Schedule:Compact,
    scheduleOSCBasementLowerWallTemp,  !- Name
    Temperature,             !- Schedule Type Limits Name
    Through:   1/31,         !- Field 1
    For:AllDays,             !- Field 2
    Until:24:00,             !- Field 3
    20.83,                   !- Field 4
    Through:   2/28,         !- Field 5
    For:AllDays,             !- Field 6
    Until:24:00,             !- Field 7
    20.94,                   !- Field 8
    Through:   3/31,         !- Field 9
    For:AllDays,             !- Field 10
    Until:24:00,             !- Field 11
    20.91,                   !- Field 12
    Through:   4/30,         !- Field 13
    For:AllDays,             !- Field 14
    Until:24:00,             !- Field 15
    21.05,                   !- Field 16
    Through:   5/31,         !- Field 17
    For:AllDays,             !- Field 18
    Until:24:00,             !- Field 19
    21.16,                   !- Field 20
    Through:   6/30,         !- Field 21
    For:AllDays,             !- Field 22
    Until:24:00,             !- Field 23
    23.36,                   !- Field 24
    Through:   7/31,         !- Field 25
    For:AllDays,             !- Field 26
    Until:24:00,             !- Field 27
    23.84,                   !- Field 28
    Through:   8/31,         !- Field 29
    For:AllDays,             !- Field 30
    Until:24:00,             !- Field 31
    23.88,                   !- Field 32
    Through:   9/30,         !- Field 33
    For:AllDays,             !- Field 34
    Until:24:00,             !- Field 35
    23.94,                   !- Field 36
    Through:  10/31,         !- Field 37
    For:AllDays,             !- Field 38
    Until:24:00,             !- Field 39
    21.91,                   !- Field 40
    Through:  11/30,         !- Field 41
    For:AllDays,             !- Field 42
    Until:24:00,             !- Field 43
    21.49,                   !- Field 44
    Through:  12/31,         !- Field 45
    For:AllDays,             !- Field 46
    Until:24:00,             !- Field 47
    21.14;                   !- Field 48

Schedule:Compact,
    Exterior_lighting_schedule_a,  !- Name
    fraction,                !- Schedule Type Limits Name
    Through:12/31,           !- Field 1
    For:AllDays,             !- Field 2
    Until: 06:00,            !- Field 3
    0,                       !- Field 4
    Until: 24:00,            !- Field 5
    1;                       !- Field 6

Schedule:Compact,
    Exterior_lighting_schedule_b,  !- Name
    fraction,                !- Schedule Type Limits Name
    Through:12/31,           !- Field 1
    For:AllDays,             !- Field 2
    Until: 06:00,            !- Field 3
    0.3,                     !- Field 4
    Until: 24:00,            !- Field 5
    1;                       !- Field 6

Schedule:Compact,
    ALWAYS_ON,               !- Name
    fraction,                !- Schedule Type Limits Name
    Through: 12/31,          !- Field 1
    For: AllDays,            !- Field 2
    Until: 24:00,            !- Field 3
    1.0;                     !- Field 4

Schedule:Compact,
    ALWAYS_OFF,              !- Name
    fraction,                !- Schedule Type Limits Name
    Through: 12/31,          !- Field 1
    For: AllDays,            !- Field 2
    Until: 24:00,            !- Field 3
    0.0;                     !- Field 4

Schedule:Compact,
    HVACOperationSchd,       !- Name
    on/off,                  !- Schedule Type Limits Name
    Through: 12/31,          !- Field 1
    For: Weekdays SummerDesignDay,  !- Field 2
    Until: 06:00,            !- Field 3
    0.0,                     !- Field 4
    Until: 22:00,            !- Field 5
    1.0,                     !- Field 6
    Until: 24:00,            !- Field 7
    0.0,                     !- Field 8
    For: Saturday WinterDesignDay,  !- Field 9
    Until: 06:00,            !- Field 10
    0.0,                     !- Field 11
    Until: 18:00,            !- Field 12
    1.0,                     !- Field 13
    Until: 24:00,            !- Field 14
    0.0,                     !- Field 15
    For: Sunday Holidays AllOtherDays,  !- Field 16
    Until: 24:00,            !- Field 17
    0.0;                     !- Field 18

Schedule:Compact,
    EXTERIOR_LIGHT_SCH,      !- Name
    fraction,                !- Schedule Type Limits Name
    Through: 12/31,          !- Field 1
    For: AllDays,            !- Field 2
    Until: 07:00,            !- Field 3
    1.0,                     !- Field 4
    Until: 19:00,            !- Field 5
    0.0,                     !- Field 6
    Until: 24:00,            !- Field 7
    1.0;                     !- Field 8

Schedule:Compact,
    BLDG_EQUIP_SCH_ADV,      !- Name
    fraction,                !- Schedule Type Limits Name
    Through: 12/31,          !- Field 1
    For: Weekdays,           !- Field 2
    Until: 08:00,            !- Field 3
    0.29821,                 !- Field 4
    Until: 12:00,            !- Field 5
    0.85170375,              !- Field 6
    Until: 13:00,            !- Field 7
    0.75707,                 !- Field 8
    Until: 17:00,            !- Field 9
    0.85170375,              !- Field 10
    Until: 18:00,            !- Field 11
    0.47316875,              !- Field 12
    Until: 24:00,            !- Field 13
    0.378535,                !- Field 14
    For: SummerDesignDay,    !- Field 15
    Until: 24:00,            !- Field 16
    1.0,                     !- Field 17
    For: Saturday,           !- Field 18
    Until: 06:00,            !- Field 19
    0.2236575,               !- Field 20
    Until: 08:00,            !- Field 21
    0.378535,                !- Field 22
    Until: 12:00,            !- Field 23
    0.47316875,              !- Field 24
    Until: 17:00,            !- Field 25
    0.331218125,             !- Field 26
    Until: 24:00,            !- Field 27
    0.2236575,               !- Field 28
    For: WinterDesignDay,    !- Field 29
    Until: 24:00,            !- Field 30
    0.0,                     !- Field 31
    For: Sunday Holidays AllOtherDays,  !- Field 32
    Until: 24:00,            !- Field 33
    0.2236575;               !- Field 34

Schedule:Compact,
    BLDG_EQUIP_SCH_BASE,     !- Name
    fraction,                !- Schedule Type Limits Name
    Through: 12/31,          !- Field 1
    For: Weekdays,           !- Field 2
    Until: 08:00,            !- Field 3
    0.40,                    !- Field 4
    Until: 12:00,            !- Field 5
    0.90,                    !- Field 6
    Until: 13:00,            !- Field 7
    0.80,                    !- Field 8
    Until: 17:00,            !- Field 9
    0.90,                    !- Field 10
    Until: 18:00,            !- Field 11
    0.50,                    !- Field 12
    Until: 24:00,            !- Field 13
    0.40,                    !- Field 14
    For: SummerDesignDay,    !- Field 15
    Until: 24:00,            !- Field 16
    1.0,                     !- Field 17
    For: Saturday,           !- Field 18
    Until: 06:00,            !- Field 19
    0.30,                    !- Field 20
    Until: 08:00,            !- Field 21
    0.4,                     !- Field 22
    Until: 12:00,            !- Field 23
    0.5,                     !- Field 24
    Until: 17:00,            !- Field 25
    0.35,                    !- Field 26
    Until: 24:00,            !- Field 27
    0.30,                    !- Field 28
    For: WinterDesignDay,    !- Field 29
    Until: 24:00,            !- Field 30
    0.0,                     !- Field 31
    For: Sunday Holidays AllOtherDays,  !- Field 32
    Until: 24:00,            !- Field 33
    0.30;                    !- Field 34

Schedule:Compact,
    BLDG_OCC_SCH,            !- Name
    fraction,                !- Schedule Type Limits Name
    Through: 12/31,          !- Field 1
    For: Weekdays,           !- Field 2
    Until: 06:00,            !- Field 3
    0.0,                     !- Field 4
    Until: 07:00,            !- Field 5
    0.1,                     !- Field 6
    Until: 08:00,            !- Field 7
    0.2,                     !- Field 8
    Until: 12:00,            !- Field 9
    0.95,                    !- Field 10
    Until: 13:00,            !- Field 11
    0.5,                     !- Field 12
    Until: 17:00,            !- Field 13
    0.95,                    !- Field 14
    Until: 18:00,            !- Field 15
    0.3,                     !- Field 16
    Until: 22:00,            !- Field 17
    0.1,                     !- Field 18
    Until: 24:00,            !- Field 19
    0.05,                    !- Field 20
    For: SummerDesignDay,    !- Field 21
    Until: 06:00,            !- Field 22
    0.0,                     !- Field 23
    Until: 22:00,            !- Field 24
    1.0,                     !- Field 25
    Until: 24:00,            !- Field 26
    0.05,                    !- Field 27
    For: Saturday,           !- Field 28
    Until: 06:00,            !- Field 29
    0.0,                     !- Field 30
    Until: 08:00,            !- Field 31
    0.1,                     !- Field 32
    Until: 12:00,            !- Field 33
    0.3,                     !- Field 34
    Until: 17:00,            !- Field 35
    0.1,                     !- Field 36
    Until: 19:00,            !- Field 37
    0.05,                    !- Field 38
    Until: 24:00,            !- Field 39
    0.0,                     !- Field 40
    For: WinterDesignDay,    !- Field 41
    Until: 24:00,            !- Field 42
    0.0,                     !- Field 43
    For: Sunday Holidays AllOtherDays,  !- Field 44
    Until: 06:00,            !- Field 45
    0.0,                     !- Field 46
    Until: 18:00,            !- Field 47
    0.05,                    !- Field 48
    Until: 24:00,            !- Field 49
    0.0;                     !- Field 50

Schedule:Compact,
    BLDG_ELEVATORS,          !- Name
    fraction,                !- Schedule Type Limits Name
    Through: 12/31,          !- Field 1
    For: SummerDesignDay,    !- Field 2
    Until: 24:00,            !- Field 3
    0.5,                     !- Field 4
    For: WinterDesignDay,    !- Field 5
    Until: 24:00,            !- Field 6
    0.05,                    !- Field 7
    For: AllOtherDays,       !- Field 8
    Until: 04:00,            !- Field 9
    0.05,                    !- Field 10
    Until: 05:00,            !- Field 11
    0.10,                    !- Field 12
    Until: 06:00,            !- Field 13
    0.20,                    !- Field 14
    Until: 07:00,            !- Field 15
    0.40,                    !- Field 16
    Until: 09:00,            !- Field 17
    0.50,                    !- Field 18
    Until: 10:00,            !- Field 19
    0.35,                    !- Field 20
    Until: 16:00,            !- Field 21
    0.15,                    !- Field 22
    Until: 17:00,            !- Field 23
    0.35,                    !- Field 24
    Until: 19:00,            !- Field 25
    0.50,                    !- Field 26
    Until: 21:00,            !- Field 27
    0.40,                    !- Field 28
    Until: 22:00,            !- Field 29
    0.30,                    !- Field 30
    Until: 23:00,            !- Field 31
    0.20,                    !- Field 32
    Until: 24:00,            !- Field 33
    0.10;                    !- Field 34

Schedule:Compact,
    ELEV_LIGHT_FAN_SCH_24_7, !- Name
    fraction,                !- Schedule Type Limits Name
    Through: 12/31,          !- Field 1
    For: AllDays,            !- Field 2
    Until: 24:00,            !- Field 3
    1;                       !- Field 4

Schedule:Compact,
    ELEV_LIGHT_FAN_SCH_ADD_DF,  !- Name
    fraction,                !- Schedule Type Limits Name
    Through: 12/31,          !- Field 1
    For: SummerDesignDay,    !- Field 2
    Until: 24:00,            !- Field 3
    0.5,                     !- Field 4
    For: WinterDesignDay,    !- Field 5
    Until: 24:00,            !- Field 6
    0.05,                    !- Field 7
    For: AllOtherDays,       !- Field 8
    Until: 04:00,            !- Field 9
    0.05,                    !- Field 10
    Until: 05:00,            !- Field 11
    0.10,                    !- Field 12
    Until: 06:00,            !- Field 13
    0.20,                    !- Field 14
    Until: 07:00,            !- Field 15
    0.40,                    !- Field 16
    Until: 09:00,            !- Field 17
    0.50,                    !- Field 18
    Until: 10:00,            !- Field 19
    0.35,                    !- Field 20
    Until: 16:00,            !- Field 21
    0.15,                    !- Field 22
    Until: 17:00,            !- Field 23
    0.35,                    !- Field 24
    Until: 19:00,            !- Field 25
    0.50,                    !- Field 26
    Until: 21:00,            !- Field 27
    0.40,                    !- Field 28